14

N 1.45105 0.78023 0.25674
B 2.06868 -0.51815 -0.37411
B -2.47468 0.40715 -0.27521
N -1.63044 -0.59608 0.19775
H 0.45655 0.76485 0.44494
H 1.76318 1.66470 -0.11805
H 2.32814 -0.08489 0.91625
H 2.91025 -0.34186 -1.20439
H 2.80518 -0.91469 0.72323
H 1.30457 -1.43459 -0.50756
H -3.33049 0.83137 0.44328
H -2.31264 0.82535 -1.38276
H -0.90627 -1.02840 -0.36049
H -1.73267 -1.01591 1.11073
