14

N -1.26775 0.77312 -0.02070
B -1.73492 -0.67845 0.18713
B 2.20653 0.03705 0.42594
N 1.11271 -0.10547 -0.47274
H 0.14153 0.53680 -0.32169
H -1.35976 1.35248 0.80822
H -1.74095 1.24552 -0.78451
H -2.06072 -0.94613 1.31268
H -2.41820 -1.10608 -0.70543
H -0.64441 -1.48492 0.06245
H 3.32936 -0.07839 0.03459
H 1.96588 0.26517 1.57389
H 0.17561 -0.99121 -0.13942
H 1.33891 -0.25975 -1.45204
