14

N 1.45716 1.16873 -0.16954
B 0.99759 -1.93459 0.01228
B -1.03136 0.45385 0.71480
N -1.80284 0.00773 -0.36122
H 1.30674 1.69699 -1.02493
H 2.31815 0.64227 -0.29018
H 1.61763 1.84362 0.57341
H 1.21405 -1.60104 -1.11143
H 1.83279 -1.79619 0.85167
H 0.00050 -2.53762 0.26730
H -0.46437 -0.35311 1.39467
H -1.07924 1.60627 1.03291
H -2.33653 0.62357 -0.95525
H -1.82111 -0.95622 -0.65827
