11

H -0.94559 -0.87527 -1.48149
C -0.98811 -0.99113 -0.40240
C -0.78883 0.15890 0.43142
H -1.45719 -1.88692 -0.00231
H -1.22047 0.14378 1.43141
O -0.60227 1.39305 -0.12058
H 0.38187 1.39973 -0.31665
O 1.59062 0.16413 -0.24511
C 0.77799 -0.59432 0.34563
H 0.44683 -1.60871 -0.28047
H 0.88153 -1.07071 1.32708
