12

N 1.11230 -0.71483 -0.17603
B 1.33354 0.71476 -0.14346
N -1.70138 0.03221 -0.24208
B -0.62413 0.11683 0.67650
H -1.85625 0.70039 -0.97962
H 1.08136 1.34518 -1.12651
H 2.06275 1.15417 0.69318
H 1.54747 -1.34117 0.48494
H 0.74912 -1.18217 -0.99334
H -2.36321 -0.72653 -0.23494
H -0.59594 -0.52929 1.67885
H -0.04877 1.19981 0.73902
