11

H -3.11945 0.66529 0.00040
C -2.58223 -0.27657 0.00016
C -1.25563 -0.31438 -0.00015
H -3.15242 -1.19846 0.00019
H -0.67301 -1.23371 -0.00040
O -0.49640 0.85296 -0.00016
H 0.59166 0.72242 -0.54578
O 2.25467 -0.80353 0.00001
C 1.98434 0.38862 0.00013
H 2.81666 1.14057 0.00027
H 0.59153 0.72248 0.54573
