13

C 2.01006 0.23549 -0.12657
C 0.77362 -0.58364 0.17482
H 2.89279 -0.41029 -0.16191
H 2.21306 1.01190 0.62704
H 1.94060 0.73384 -1.09968
C -0.55727 -0.09103 0.06224
O -1.36070 -1.08588 -0.14115
C -1.08346 1.30673 0.04708
H -2.13951 1.30274 0.32748
H -1.01815 1.70259 -0.97423
H -0.51141 1.96988 0.70020
H -0.20611 -1.61264 -0.30019
H 0.85661 -1.21634 1.06509
