16

C -1.54195 1.15337 -0.42774
C -0.60921 -0.01177 -0.56503
C 0.68155 -0.08714 0.05550
C 1.36316 1.11696 0.66690
O 1.57886 -1.01366 -0.54554
H -1.21009 1.95631 -1.10044
H -1.54021 1.54746 0.59029
H -2.56539 0.88108 -0.68989
H 1.86822 1.74040 -0.09002
H 2.12734 0.79109 1.37842
H 0.66251 1.76250 1.20394
H 2.08387 -0.54230 -1.22584
H -0.76686 -0.66046 -1.42486
H -1.40698 -2.09102 0.40941
O -1.38412 -1.18287 0.75666
H -0.17161 -0.84129 0.88219
