12

N 1.56429 0.60798 -0.00002
B 1.79987 -0.76372 0.00007
N -1.85720 -0.54736 -0.00006
B -1.38345 0.74425 0.00007
H -1.22711 -1.34069 -0.00011
H 2.88184 -1.29285 -0.00014
H 0.82952 -1.50415 0.00039
H 0.00249 0.83308 -0.42911
H 2.38589 1.21182 -0.00028
H -2.84110 -0.78287 -0.00009
H -2.06577 1.71533 0.00017
H 0.00251 0.83333 0.42907
