16

C 2.39946 -0.19930 0.00000
C 0.97320 -0.69251 0.00000
C -0.09176 0.12025 -0.00000
C -0.18286 1.60682 -0.00001
O -1.45017 -0.37946 1.11760
H 2.45038 0.89311 -0.00004
H 2.95346 -0.54895 -0.88165
H 2.95344 -0.54889 0.88170
H 0.29733 2.02066 -0.89183
H 0.29731 2.02066 0.89182
H -1.22793 1.91600 -0.00002
H -1.06817 -1.13752 1.58322
H 0.81718 -1.77020 0.00001
H -1.79042 -0.64735 0.00000
O -1.45016 -0.37948 -1.11760
H -1.06817 -1.13754 -1.58320
