16

C 0.49090 -1.93131 0.25758
C 0.15326 -0.85315 -0.59782
C 0.61694 0.32787 0.05811
C 2.08481 0.74857 -0.02937
O -0.15361 1.45965 0.11868
H -0.02756 -2.05483 1.20796
H 1.01041 -0.75796 1.02398
H 0.83233 -2.90000 -0.13388
H 2.74610 -0.11397 -0.10961
H 2.37079 1.34996 0.83791
H 2.20442 1.37631 -0.92228
H -1.09465 1.18852 0.15795
H -0.33634 -0.89681 -1.57272
H -3.07461 0.31594 -0.73190
O -2.66290 0.21116 0.13627
H -2.17421 -0.62546 0.07194
