11

C 1.50965 0.14572 -0.14814
C 0.13426 -0.16891 0.44422
N -0.73960 -1.01563 -0.20477
C -1.05663 0.71357 -0.05728
H 0.15674 -0.18572 1.55072
H 1.94558 1.04932 0.29323
H 2.19155 -0.68649 0.05570
H 1.43902 0.26529 -1.23320
H -1.72531 -0.01082 -0.64230
H -1.64759 1.10013 0.77040
H -0.70643 1.43539 -0.79393
