16

C 1.01937 -0.14133 0.35518
C 0.68227 1.22209 0.07922
C -0.68228 1.22209 -0.07921
C -1.01937 -0.14133 -0.35519
C 2.27827 -0.82189 -0.12254
C -2.27826 -0.82190 0.12254
H 0.59403 -0.56734 1.25806
H 1.39200 2.03437 -0.07594
H -1.39202 2.03436 0.07595
H -0.59402 -0.56733 -1.25808
H 3.11066 -0.64113 0.57427
H 2.58962 -0.47128 -1.11104
H 2.14518 -1.90785 -0.17361
H -2.14531 -1.90789 0.17327
H -3.11075 -0.64081 -0.57406
H -2.58940 -0.47155 1.11120
