16

C -0.44471 1.43601 -0.48930
C -1.32236 0.70314 0.28919
C -1.32243 -0.70303 0.28919
C -0.44486 -1.43599 -0.48930
C 1.57420 0.69305 0.22769
C 1.57414 -0.69317 0.22772
H -1.87245 1.21343 1.07756
H -0.12387 1.06598 -1.45551
H -0.39213 2.51552 -0.37886
H 2.07520 1.23405 -0.56888
H 1.47169 1.23511 1.16010
H 1.47157 -1.23519 1.16013
H 2.07510 -1.23424 -0.56884
H -0.39237 -2.51550 -0.37888
H -0.12398 -1.06597 -1.45551
H -1.87257 -1.21327 1.07755
