16

C -0.47569 1.49508 0.30222
C 0.44493 0.98084 -0.57477
C 0.83272 -0.43733 -0.42770
C 1.89650 -0.34731 0.49124
C -1.79044 -0.32138 0.07522
C -0.76545 -1.30610 0.01391
H 0.78370 1.52723 -1.44993
H -0.50387 1.13370 1.32493
H -0.86876 2.50102 0.17228
H -2.32382 -0.12595 0.99846
H -2.31917 -0.02991 -0.82565
H -0.81228 -1.98314 -0.83760
H -0.55577 -1.83802 0.93991
H 2.82892 -0.89377 0.36835
H 1.79711 0.25004 1.38967
H 1.11849 -0.92401 -1.36117
