12

N -1.94749 -0.17121 0.22776
B -0.63551 0.55841 -0.36577
N 1.96682 0.12616 0.16994
B 0.79505 -0.57370 -0.10589
H 1.96792 1.11206 0.39047
H -0.39464 1.60857 0.16829
H -0.59543 0.52822 -1.57227
H -2.61124 -0.53200 -0.44295
H -2.39290 0.29167 1.00691
H 2.88871 -0.27437 0.07239
H 0.90663 -1.73947 -0.37590
H -0.70203 -0.60292 0.32737
