16

C 0.38615 0.17008 -0.95479
C -0.49936 0.91773 -0.05362
C -1.75628 0.43700 0.39911
C -2.39344 -0.71844 0.05643
C 2.61823 -0.07797 0.44842
C 1.26633 -0.50123 0.11646
H -0.08923 1.80916 0.41144
H -0.13769 -0.56933 -1.56568
H 1.00471 0.78715 -1.61244
H 3.03539 -0.21813 1.43930
H 3.21498 0.43376 -0.29798
H 2.11871 -1.24427 -0.28536
H 0.72058 -1.04065 0.88521
H -3.36510 -0.96253 0.47046
H -1.96777 -1.44081 -0.63370
H -2.26441 1.08271 1.11661
