16

C 2.01479 -0.98695 -0.23486
C 1.51635 0.08170 0.38665
C 0.07765 0.52698 0.42085
C -0.20632 1.75147 -0.31184
C -0.92343 -0.40170 -0.33956
C -2.22090 -0.79818 0.17624
H 2.19115 0.75585 0.91302
H 1.38871 -1.67706 -0.79284
H 3.07696 -1.20972 -0.20748
H -0.79611 -0.41603 -1.41904
H -0.92385 -1.53469 0.01426
H -2.36774 -0.85534 1.24884
H -3.07959 -0.95431 -0.46800
H -1.11319 2.30893 -0.10978
H 0.32931 1.96602 -1.22953
H -0.25443 0.57643 1.46567
