16

C 2.43485 -0.50004 -0.14089
C 1.19762 -0.07045 0.09815
C 0.48909 1.11486 0.34351
C -0.70690 1.31572 -0.36300
C -1.87624 -0.20928 0.08984
C -1.17250 -1.43123 0.02090
H 0.29245 -0.93082 0.07409
H 3.25268 0.18830 -0.33796
H 2.66918 -1.56017 -0.17268
H -2.23265 0.10697 1.06685
H -2.57764 0.01401 -0.70974
H -1.17666 -1.99957 -0.90588
H -1.03140 -2.02061 0.92291
H -1.31588 2.18141 -0.11021
H -0.69166 1.09892 -1.42885
H 0.61616 1.60403 1.31045
