16

C -0.37121 -1.74339 0.41803
C -1.28080 -0.91068 -0.25267
C -1.16366 0.45956 -0.15338
C -1.65694 1.64228 0.16230
C 2.48358 0.57752 0.28252
C 1.52650 0.03033 -0.50481
H -1.78242 -1.30460 -1.13885
H -0.08552 -1.49890 1.44075
H -0.34678 -2.80333 0.17947
H 3.46974 0.83608 -0.09381
H 2.30308 0.78226 1.33538
H 0.84832 -0.98736 -0.08137
H 1.76968 -0.13661 -1.55740
H -1.11485 2.56112 -0.04810
H -2.61761 1.74908 0.66495
H 0.33149 0.46852 -0.41298
