16

C 1.36631 1.24686 0.27880
C 1.48281 0.41776 -0.87540
C 1.66714 -0.84941 -0.36724
C 1.16645 -0.77231 0.96568
C -2.85986 0.50092 0.20241
C -2.42450 -0.60916 -0.38928
H 1.35472 0.73625 -1.90821
H 2.19852 1.29906 0.96973
H 0.71010 2.12190 0.31734
H -3.79146 0.52701 0.76144
H -2.30184 1.43186 0.15016
H -1.49043 -0.63308 -0.94368
H -2.98294 -1.54020 -0.33790
H 1.61507 -1.32409 1.79785
H 0.12308 -0.52389 1.11584
H 2.17505 -1.70284 -0.81238
