16

C -2.43488 -0.49993 0.14078
C -1.19758 -0.07044 -0.09811
C -0.48902 1.11489 -0.34336
C 0.70708 1.31557 0.36307
C 1.87614 -0.20928 -0.09014
C 1.17244 -1.43124 -0.02072
H -0.29252 -0.93081 -0.07402
H -3.25267 0.18847 0.33784
H -2.66931 -1.56004 0.17247
H 2.23213 0.10676 -1.06735
H 2.57794 0.01407 0.70908
H 1.17664 -1.99926 0.90625
H 1.03106 -2.02086 -0.92252
H 1.31601 2.18132 0.11036
H 0.69193 1.09865 1.42890
H -0.61620 1.60426 -1.31017
