20

C 0.74285 1.71981 -0.24549
P 0.74399 -0.12373 -0.15998
C 2.47430 -0.53375 -0.74377
C 0.84364 -0.51286 1.63811
H 1.59001 2.14234 0.30571
H 0.80389 2.04399 -1.28869
H -0.20369 2.04739 0.18520
H 1.57504 0.12393 2.14630
H -0.15400 -0.34985 2.04777
H 1.13488 -1.55925 1.77181
H 3.23771 -0.00781 -0.15832
H 2.58621 -0.25312 -1.79518
H 2.64883 -1.61029 -0.65861
H -2.81879 0.77021 -1.11805
C -2.60368 0.00822 -0.34253
C -1.58768 -0.96215 -0.76238
H -3.57645 -0.44945 -0.06359
H -1.20776 -1.03049 -1.77418
H -1.48230 -1.85701 -0.16074
O -1.81374 0.44121 0.71209
