17

C 2.93355 -2.10018 0.50434
C 2.52998 -0.75412 0.06245
C 3.06268 0.27449 -0.56512
C 2.36478 1.55972 -0.96292
O 1.26332 1.87846 -0.13129
Cl -1.47654 0.75981 1.51291
S -1.13098 -0.25008 -0.28642
O 0.43792 -0.99394 0.18454
Cl -3.34381 -0.49419 -0.89184
H 2.40607 -2.86600 -0.07114
H 2.71062 -2.26480 1.56284
H 4.01487 -2.22594 0.35370
H 1.16828 -0.34845 0.59333
H 4.12726 0.20162 -0.81396
H 3.10141 2.37443 -0.99788
H 1.95817 1.45432 -1.97517
H 1.59892 2.20502 0.71443
