17

C 3.56771 0.25872 1.15858
C 2.42723 0.07233 0.20338
C 2.26379 -1.00592 -0.57328
C 1.14439 -1.24891 -1.54984
O -0.06315 -0.51603 -1.33194
Cl -0.42973 2.15911 -0.68653
S -0.85422 -0.64234 0.75152
O -0.69619 0.20982 1.92391
Cl -2.82405 -0.56974 0.06564
H 3.19927 0.40720 2.18070
H 4.13726 1.16016 0.90223
H 4.25213 -0.59468 1.15748
H 1.71085 0.89227 0.14797
H 3.00492 -1.80571 -0.54825
H 1.46579 -1.02058 -2.57883
H 0.86034 -2.30815 -1.54784
H 0.00726 0.52008 -1.35151
