17

C -3.12239 1.73183 -0.69181
C -2.48392 0.55311 -0.05838
C -1.95709 -0.54920 -0.75487
C -1.66635 -1.86353 -0.06201
O -1.51741 -1.75499 1.33902
Cl 1.15573 1.05746 1.45060
S 1.00687 -0.08610 -0.29629
O -0.55925 0.43998 -0.80969
Cl 3.30838 -0.27947 -0.72925
H -2.60341 2.65191 -0.39887
H -4.15791 1.83388 -0.33566
H -3.13336 1.66233 -1.78145
H -2.34219 0.55558 1.01897
H -2.19869 -0.64689 -1.81195
H -2.45677 -2.57512 -0.34454
H -0.72291 -2.26586 -0.44738
H -2.39286 -1.77721 1.74624
