21

C -1.40405 1.84209 0.92949
C -1.72869 0.52299 0.20093
H -1.90208 1.86334 1.89739
H -1.70034 2.68923 0.31371
H -0.32004 1.84818 1.06987
O -1.72653 0.53979 -1.04249
O -2.08983 -1.54600 -0.95543
H -2.22161 -2.05246 -0.13548
O -1.92983 -0.48598 0.91104
C 1.84308 0.35813 -0.69583
C 1.47775 -0.79139 -0.11222
C 2.21523 -1.55863 0.94899
H 0.54130 -1.23953 -0.44154
H 3.13508 -1.06700 1.27471
H 2.48217 -2.56060 0.58905
H 1.58129 -1.70612 1.83252
C 3.08760 1.16498 -0.44822
H 1.17365 0.75899 -1.45654
H 3.71757 0.74685 0.34049
H 2.84168 2.19735 -0.16806
H 3.69541 1.23030 -1.35987
